data_cif

_audit_creation_method             'generated by GULP'

_symmetry_space_group_name_H-M     'P 1'
_symmetry_Int_Tables_number        1
_symmetry_cell_setting             triclinic

_cell_length_a                        5.0687
_cell_length_b                        8.7965
_cell_length_c                        9.5107
_cell_angle_alpha                   90.0000
_cell_angle_beta                   100.2425
_cell_angle_gamma                   90.0000

loop_
_atom_site_label
_atom_site_fract_x
_atom_site_fract_y
_atom_site_fract_z
_atom_site_occupancy
  Li          0.24064      0.08004      0.00055  1.0000
  Li          0.79162      0.93104      0.00119  1.0000
  Li          0.79162      0.08004      0.50119  1.0000
  Li          0.24064      0.93104      0.50055  1.0000
  Li          0.74064      0.58004      0.00055  1.0000
  Li          0.29162      0.43104      0.00119  1.0000
  Li          0.29162      0.58004      0.50119  1.0000
  Li          0.74064      0.43104      0.50055  1.0000
  Li          0.26613      0.25554      0.50087  1.0000
  Li          0.76613      0.75554      0.50087  1.0000
  Li          0.76613      0.25554      0.00087  1.0000
  Li          0.26613      0.75554      0.00087  1.0000
  Li          0.01613      0.08991      0.25087  1.0000
  Li          0.01613      0.92117      0.75087  1.0000
  Li          0.51613      0.58991      0.25087  1.0000
  Li          0.51613      0.42117      0.75087  1.0000
  O           0.15508      0.26613      0.13681  1.0000
  O           0.87718      0.74495      0.86493  1.0000
  O           0.87718      0.26613      0.36493  1.0000
  O           0.15508      0.74495      0.63681  1.0000
  O           0.65508      0.76613      0.13681  1.0000
  O           0.37718      0.24495      0.86493  1.0000
  O           0.37718      0.76613      0.36493  1.0000
  O           0.65508      0.24495      0.63681  1.0000
  O           0.12426      0.58862      0.13661  1.0000
  O           0.90800      0.42246      0.86513  1.0000
  O           0.90800      0.58862      0.36513  1.0000
  O           0.12426      0.42246      0.63661  1.0000
  O           0.62426      0.08862      0.13661  1.0000
  O           0.40800      0.92246      0.86513  1.0000
  O           0.40800      0.08862      0.36513  1.0000
  O           0.62426      0.92246      0.63661  1.0000
  O           0.15431      0.91181      0.13649  1.0000
  O           0.87795      0.09927      0.86525  1.0000
  O           0.87795      0.91181      0.36525  1.0000
  O           0.15431      0.09927      0.63649  1.0000
  O           0.65431      0.41181      0.13649  1.0000
  O           0.37795      0.59927      0.86525  1.0000
  O           0.37795      0.41181      0.36525  1.0000
  O           0.65431      0.59927      0.63649  1.0000
  Ti          0.01613      0.42230      0.25087  1.0000
  Ti          0.01613      0.58878      0.75087  1.0000
  Ti          0.51613      0.92230      0.25087  1.0000
  Ti          0.51613      0.08878      0.75087  1.0000
  Ti          0.01613      0.75484      0.25087  1.0000
  Ti          0.01613      0.25624      0.75087  1.0000
  Ti          0.51613      0.25484      0.25087  1.0000
  Ti          0.51613      0.75624      0.75087  1.0000
